PERFORM/On Peak 2019 v23_Perform_NY/On Peak 2019 v23/On Peak 2019 v22/nyisoOnPeakv22.m
function mpc = nyisoOnPeakv22
%NYISOONPEAKV22

%% MATPOWER Case Format : Version 2
mpc.version = '2';

%%-----  Power Flow Data  -----%%
%% system MVA base
mpc.baseMVA = 100;

%% bus data
%	bus_i	type	Pd	Qd	Gs	Bs	area	Vm	Va	baseKV	zone	Vmax	Vmin
mpc.bus = [
	1	1	115.187991	0	0	0	66	1.00316807	90.8991679	115	66	1.1	0.9;
	2	1	1.538569	0	0	0	70	1.00725309	77.5373466	69	70	1.1	0.9;
	3	1	3.421778	0	0	0	70	1.0090462	82.9350006	115	70	1.1	0.9;
	4	1	74.046987	0	0	0	68	0.991855896	94.6920332	115	68	1.1	0.9;
	5	1	3.421778	0	0	0	70	1.00632063	86.3203165	115	70	1.1	0.9;
	6	2	3.421778	0	0	0	70	1.02	83.0153373	115	70	1.1	0.9;
	7	1	6.843556	0	0	0	70	1.0165813	82.2589804	115	70	1.1	0.9;
	8	1	6.843556	0	0	0	70	1.01920922	82.4869802	115	70	1.1	0.9;
	9	1	36.727503	0	0	0	71	1.01310795	69.3410744	115	71	1.1	0.9;
	10	1	14.809397	0	0	0	68	0.983569633	91.2487689	115	68	1.1	0.9;
	11	1	6.843556	0	0	0	70	1.0093744	82.8913731	115	70	1.1	0.9;
	12	1	3.421778	0	0	0	70	1.01741872	81.3891048	115	70	1.1	0.9;
	13	1	13.687113	0	0	0	70	1.01406121	80.5959804	115	70	1.1	0.9;
	14	1	4.154006	0	0	0	69	1.00648367	78.6883867	115	69	1.1	0.9;
	15	2	4.154006	0	0	0	69	1.02	100.002186	115	69	1.1	0.9;
	16	1	10.385014	0	0	0	69	1.01301413	88.5323322	115	69	1.1	0.9;
	17	1	44.51853	0	0	0	75	1.01220295	48.8549025	138	75	1.1	0.9;
	18	1	41.736126	0	0	0	75	1.01691754	59.2435456	69	75	1.1	0.9;
	19	2	77.350956	0	0	0	75	1.02	60.4158671	115	75	1.1	0.9;
	20	1	8.308011	0	0	0	69	1.01761804	101.872151	115	69	1.1	0.9;
	21	1	8.308011	0	0	0	69	1.01829375	101.914908	115	69	1.1	0.9;
	22	1	1.538569	0	0	0	70	1.00960918	77.2019776	69	70	1.1	0.9;
	23	1	10.385014	0	0	0	69	1.01605232	80.0673267	115	69	1.1	0.9;
	24	2	20.893222	0	0	0	67	1.02	98.7551035	115	67	1.1	0.9;
	25	1	2.077003	0	0	0	69	1.01994493	97.6505647	115	69	1.1	0.9;
	26	1	0	0	0	0	74	1.02001509	63.3066661	345	74	1.1	0.9;
	27	2	8.35729	0	0	0	67	1.02	93.0534007	115	67	1.1	0.9;
	28	1	2.077003	0	0	0	69	1.01996683	98.6161802	115	69	1.1	0.9;
	29	2	16.71458	0	0	0	67	1.02	93.4955826	115	67	1.1	0.9;
	30	2	8.357291	0	0	0	67	1.02	94.2414765	115	67	1.1	0.9;
	31	2	3.421778	0	0	0	70	1.02	83.6337308	115	70	1.1	0.9;
	32	2	3.421778	0	0	0	70	1.02	83.6503331	115	70	1.1	0.9;
	33	2	5.050016	0	0	0	65	1.02	99.7474819	115	65	1.1	0.9;
	34	2	8.35729	0	0	0	67	1.02	102.882525	115	67	1.1	0.9;
	35	1	35.238913	0	0	0	68	0.999210453	93.0254096	115	68	1.1	0.9;
	36	1	35.23891	0	0	0	68	0.999094396	93.059866	115	68	1.1	0.9;
	37	2	7.575025	0	0	0	65	1.02	97.0702005	115	65	1.1	0.9;
	38	2	5.050016	0	0	0	65	1.02	98.2904129	115	65	1.1	0.9;
	39	2	0	0	0	0	65	1.02	101.867711	230	65	1.1	0.9;
	40	1	2.077003	0	0	0	69	1.01923988	104.132486	115	69	1.1	0.9;
	41	2	5.050016	0	0	0	65	1.02	96.108932	115	65	1.1	0.9;
	42	1	17.675059	0	0	0	65	1.02001885	94.5962566	115	65	1.1	0.9;
	43	1	5.050016	0	0	0	65	1.0189144	94.3100637	115	65	1.1	0.9;
	44	1	2.525008	0	0	0	65	1.01892402	94.3158177	115	65	1.1	0.9;
	45	1	7.575025	0	0	0	65	1.01893228	94.3177986	115	65	1.1	0.9;
	46	1	5.050016	0	0	0	65	1.01996862	94.5838636	115	65	1.1	0.9;
	47	1	2.525008	0	0	0	65	1.02169143	94.88444	115	65	1.1	0.9;
	48	1	10.100032	0	0	0	65	1.01996448	95.1198852	115	65	1.1	0.9;
	49	1	4.154006	0	0	0	69	1.01786883	82.2967427	115	69	1.1	0.9;
	50	1	4.154006	0	0	0	69	1.00706312	99.7270739	115	69	1.1	0.9;
	51	1	4.178645	0	0	0	67	1.01792761	94.3002388	115	67	1.1	0.9;
	52	2	4.178645	0	0	0	67	1.02	94.725945	115	67	1.1	0.9;
	53	2	8.35729	0	0	0	67	1.02	96.6338901	115	67	1.1	0.9;
	54	1	0	0	0	0	67	1.02674455	95.4869597	230	67	1.1	0.9;
	55	1	12.535934	0	0	0	67	1.0174873	91.2264876	115	67	1.1	0.9;
	56	1	8.35729	0	0	0	67	1.01699258	90.5703204	115	67	1.1	0.9;
	57	1	8.35729	0	0	0	67	1.01710614	89.9262481	115	67	1.1	0.9;
	58	1	6.267966	0	0	0	67	1.01927142	102.571911	115	67	1.1	0.9;
	59	1	14.53902	0	0	0	69	1.02013981	97.6438653	115	69	1.1	0.9;
	60	2	1.867808	0	0	0	69	1.02	77.6213563	69	69	1.1	0.9;
	61	1	12.535934	0	0	0	67	1.0173698	89.8441771	115	67	1.1	0.9;
	62	1	0	0	0	0	70	1.02001364	84.8193512	345	70	1.1	0.9;
	63	2	0	0	0	0	70	1.02	84.8351262	345	70	1.1	0.9;
	64	1	2.077003	0	0	0	69	1.0049975	97.1539169	115	69	1.1	0.9;
	65	1	5.050016	0	0	0	65	1.02104969	93.6361774	115	65	1.1	0.9;
	66	1	5.050016	0	0	0	65	1.01801897	92.5885581	115	65	1.1	0.9;
	67	1	2.525008	0	0	0	65	1.01809809	92.5860958	115	65	1.1	0.9;
	68	1	5.050016	0	0	0	65	1.01714302	93.2090877	115	65	1.1	0.9;
	69	2	12.62504	0	0	0	65	1.02	93.2821615	115	65	1.1	0.9;
	70	1	5.050016	0	0	0	65	1.01983988	93.2419831	115	65	1.1	0.9;
	71	1	7.575025	0	0	0	65	1.02259792	93.7822761	115	65	1.1	0.9;
	72	1	2.525008	0	0	0	65	1.02013028	93.5949575	115	65	1.1	0.9;
	73	1	5.050016	0	0	0	65	1.02007554	93.5858788	115	65	1.1	0.9;
	74	1	10.100032	0	0	0	65	1.01989665	93.5619465	115	65	1.1	0.9;
	75	1	2.525008	0	0	0	65	1.01968734	93.530268	115	65	1.1	0.9;
	76	1	5.050016	0	0	0	65	1.01967886	93.5282548	115	65	1.1	0.9;
	77	1	12.62504	0	0	0	65	1.02037202	93.3686651	115	65	1.1	0.9;
	78	1	5.050016	0	0	0	65	1.02158158	93.5380102	115	65	1.1	0.9;
	79	2	0	0	0	0	74	1.02	63.0899876	345	74	1.1	0.9;
	80	2	4.154006	0	0	0	69	1.02	98.661152	115	69	1.1	0.9;
	81	1	20.893224	0	0	0	67	1.02208958	87.6842153	115	67	1.1	0.9;
	82	2	2.077003	0	0	0	69	1.02	86.1521463	115	69	1.1	0.9;
	83	2	6.231008	0	0	0	69	1.02	97.7023834	115	69	1.1	0.9;
	84	2	3.421778	0	0	0	70	1.02	83.5306601	115	70	1.1	0.9;
	85	1	2.525008	0	0	0	65	1.01789021	92.8698754	115	65	1.1	0.9;
	86	1	5.050016	0	0	0	65	1.0180552	95.6061929	115	65	1.1	0.9;
	87	1	7.575025	0	0	0	65	1.01762895	95.7753672	115	65	1.1	0.9;
	88	1	5.050016	0	0	0	65	1.01747778	96.0484635	115	65	1.1	0.9;
	89	1	2.525008	0	0	0	65	1.01746717	96.1445234	115	65	1.1	0.9;
	90	1	5.050016	0	0	0	65	1.01763616	96.4165162	115	65	1.1	0.9;
	91	1	5.050016	0	0	0	65	1.01799674	96.8071571	115	65	1.1	0.9;
	92	1	14.398499	0	0	0	66	1.0128969	92.5795674	115	66	1.1	0.9;
	93	1	14.398499	0	0	0	66	1.01869112	95.6387866	115	66	1.1	0.9;
	94	1	14.398499	0	0	0	66	1.01920175	98.0589305	115	66	1.1	0.9;
	95	2	7.199249	0	0	0	66	1.02	98.2461108	115	66	1.1	0.9;
	96	1	7.199249	0	0	0	66	1.01712084	97.5498794	115	66	1.1	0.9;
	97	1	14.398499	0	0	0	66	1.01718731	97.5658284	115	66	1.1	0.9;
	98	1	14.398499	0	0	0	66	1.01426419	93.2424676	115	66	1.1	0.9;
	99	1	14.398499	0	0	0	66	1.01206916	92.5475301	115	66	1.1	0.9;
	100	1	7.199249	0	0	0	66	1.01029136	91.9497518	115	66	1.1	0.9;
	101	1	5.050016	0	0	0	65	1.0010123	92.1041336	115	65	1.1	0.9;
	102	1	5.050016	0	0	0	65	1.00104546	92.1117676	115	65	1.1	0.9;
	103	1	2.525008	0	0	0	65	1.00180368	92.3026431	115	65	1.1	0.9;
	104	1	5.050016	0	0	0	65	1.01449845	95.6129144	115	65	1.1	0.9;
	105	1	20.200065	0	0	0	65	1.01463432	95.4830196	115	65	1.1	0.9;
	106	1	5.050016	0	0	0	65	1.01524375	95.6139221	115	65	1.1	0.9;
	107	1	12.62504	0	0	0	65	1.01651266	95.9086243	115	65	1.1	0.9;
	108	1	8.35729	0	0	0	67	1.02166785	89.784367	115	67	1.1	0.9;
	109	1	8.35729	0	0	0	67	1.02120296	90.0795996	115	67	1.1	0.9;
	110	1	12.535934	0	0	0	67	1.02002444	88.215074	115	67	1.1	0.9;
	111	1	8.35729	0	0	0	67	1.01762076	89.3269675	115	67	1.1	0.9;
	112	1	8.35729	0	0	0	67	1.01849652	86.9706176	115	67	1.1	0.9;
	113	1	8.35729	0	0	0	67	1.01777293	86.9141881	115	67	1.1	0.9;
	114	1	8.35729	0	0	0	67	1.01802437	87.1032503	115	67	1.1	0.9;
	115	1	8.35729	0	0	0	67	1.02073573	86.4063051	115	67	1.1	0.9;
	116	2	8.35729	0	0	0	67	1.02	88.1395851	115	67	1.1	0.9;
	117	1	12.535934	0	0	0	67	1.02067318	87.3592347	115	67	1.1	0.9;
	118	1	8.35729	0	0	0	67	1.0185804	87.0467835	115	67	1.1	0.9;
	119	1	8.35729	0	0	0	67	1.01836646	87.1371094	115	67	1.1	0.9;
	120	1	8.35729	0	0	0	67	1.01860111	87.3558225	115	67	1.1	0.9;
	121	1	8.35729	0	0	0	67	1.01981178	87.1831157	115	67	1.1	0.9;
	122	1	8.35729	0	0	0	67	1.02085755	87.3981053	115	67	1.1	0.9;
	123	1	8.35729	0	0	0	67	1.01947791	87.1236004	115	67	1.1	0.9;
	124	1	25.071865	0	0	0	67	1.01909706	90.4145579	115	67	1.1	0.9;
	125	1	2.077003	0	0	0	69	1.01714662	106.897744	115	69	1.1	0.9;
	126	1	2.077003	0	0	0	69	1.01715013	106.868398	115	69	1.1	0.9;
	127	2	34.217778	0	0	0	70	1.02	84.475777	115	70	1.1	0.9;
	128	2	43.195498	0	0	0	66	1.02	98.6261125	115	66	1.1	0.9;
	129	1	21.597749	0	0	0	66	1.00587568	88.8414011	115	66	1.1	0.9;
	130	1	7.199249	0	0	0	66	1.00448161	89.6691884	115	66	1.1	0.9;
	131	1	25.071868	0	0	0	67	1.01803003	94.3267957	115	67	1.1	0.9;
	132	1	0	0	0	0	67	1.02120514	97.2043454	230	67	1.1	0.9;
	133	1	12.535934	0	0	0	67	1.01791473	89.4854156	115	67	1.1	0.9;
	134	1	12.62504	0	0	0	65	1.01413254	92.9349888	115	65	1.1	0.9;
	135	1	5.050016	0	0	0	65	1.01730318	95.2287974	115	65	1.1	0.9;
	136	1	5.050016	0	0	0	65	1.01714775	95.2921687	115	65	1.1	0.9;
	137	1	5.050016	0	0	0	65	1.01972527	95.3575539	115	65	1.1	0.9;
	138	1	0	0	0	0	65	1.0195413	101.683406	230	65	1.1	0.9;
	139	1	7.575025	0	0	0	65	1.0180215	98.0058004	115	65	1.1	0.9;
	140	1	10.758533	0	0	0	65	1.01806501	98.02203	115	65	1.1	0.9;
	141	1	5.050016	0	0	0	65	1.01347022	96.3759073	115	65	1.1	0.9;
	142	1	7.575025	0	0	0	65	1.01269714	96.0614454	115	65	1.1	0.9;
	143	1	5.050016	0	0	0	65	1.02384014	95.9692139	115	65	1.1	0.9;
	144	1	5.050016	0	0	0	65	1.02123044	95.6180133	115	65	1.1	0.9;
	145	1	7.575025	0	0	0	65	1.01984892	95.4569137	115	65	1.1	0.9;
	146	1	2.525008	0	0	0	65	1.0194553	95.3450602	115	65	1.1	0.9;
	147	1	4.178645	0	0	0	67	1.01846794	90.7519651	115	67	1.1	0.9;
	148	1	4.178645	0	0	0	67	1.01949175	89.3810765	115	67	1.1	0.9;
	149	1	12.535934	0	0	0	67	1.01955425	89.4006454	115	67	1.1	0.9;
	150	1	8.35729	0	0	0	67	1.01998823	89.3502034	115	67	1.1	0.9;
	151	1	4.178645	0	0	0	67	1.01999673	89.3502148	115	67	1.1	0.9;
	152	1	8.35729	0	0	0	67	1.01963054	93.9672559	115	67	1.1	0.9;
	153	1	4.178645	0	0	0	67	1.0155789	88.0815933	115	67	1.1	0.9;
	154	1	12.535934	0	0	0	67	1.01550741	88.9696485	115	67	1.1	0.9;
	155	1	4.178645	0	0	0	67	1.01525228	88.9056667	115	67	1.1	0.9;
	156	1	8.35729	0	0	0	67	1.01477916	88.7530243	115	67	1.1	0.9;
	157	1	4.178645	0	0	0	67	1.01476572	88.745216	115	67	1.1	0.9;
	158	1	4.178645	0	0	0	67	1.01491059	88.7757643	115	67	1.1	0.9;
	159	1	5.050016	0	0	0	65	1.02242383	95.6328567	115	65	1.1	0.9;
	160	1	2.525008	0	0	0	65	1.0189493	95.3379632	115	65	1.1	0.9;
	161	1	5.050016	0	0	0	65	1.01599934	94.3939889	115	65	1.1	0.9;
	162	1	10.100032	0	0	0	65	1.01593143	94.3783412	115	65	1.1	0.9;
	163	1	12.62504	0	0	0	65	1.01580492	94.3505388	115	65	1.1	0.9;
	164	1	2.525008	0	0	0	65	1.0158005	94.3494726	115	65	1.1	0.9;
	165	1	2.525008	0	0	0	65	1.01616713	95.118853	115	65	1.1	0.9;
	166	1	2.525008	0	0	0	65	1.01640344	95.1772137	115	65	1.1	0.9;
	167	1	8.35729	0	0	0	67	1.01225652	93.1127395	115	67	1.1	0.9;
	168	1	2.077003	0	0	0	69	1.01307076	90.3600537	115	69	1.1	0.9;
	169	1	8.35729	0	0	0	67	1.01293614	92.6461393	115	67	1.1	0.9;
	170	1	8.35729	0	0	0	67	1.01366915	92.5428574	115	67	1.1	0.9;
	171	1	33.429158	0	0	0	67	1.01334695	92.5242701	115	67	1.1	0.9;
	172	1	8.35729	0	0	0	67	1.01144601	92.9003894	115	67	1.1	0.9;
	173	1	12.535933	0	0	0	67	1.01012625	93.5238948	115	67	1.1	0.9;
	174	1	8.35729	0	0	0	67	1.00945331	93.2283729	115	67	1.1	0.9;
	175	1	8.35729	0	0	0	67	1.00844341	92.9703557	115	67	1.1	0.9;
	176	1	8.35729	0	0	0	67	1.00725157	92.6189527	115	67	1.1	0.9;
	177	1	4.178645	0	0	0	67	1.00747493	92.6782687	115	67	1.1	0.9;
	178	1	12.535934	0	0	0	67	1.00729526	92.6307329	115	67	1.1	0.9;
	179	1	8.35729	0	0	0	67	1.00737715	92.6480269	115	67	1.1	0.9;
	180	1	8.35729	0	0	0	67	1.0082152	92.8275808	115	67	1.1	0.9;
	181	1	8.35729	0	0	0	67	1.00726078	92.6222911	115	67	1.1	0.9;
	182	1	8.35729	0	0	0	67	1.00359789	94.7862402	115	67	1.1	0.9;
	183	1	8.35729	0	0	0	67	1.00363385	94.7949977	115	67	1.1	0.9;
	184	1	8.35729	0	0	0	67	1.01040944	93.6432135	115	67	1.1	0.9;
	185	1	8.35729	0	0	0	67	1.00478878	94.610962	115	67	1.1	0.9;
	186	1	6.231008	0	0	0	69	1.02515369	80.8774809	115	69	1.1	0.9;
	187	1	4.154006	0	0	0	69	1.02210022	81.7657658	115	69	1.1	0.9;
	188	1	4.154006	0	0	0	69	0.985068249	74.3575171	115	69	1.1	0.9;
	189	1	2.077003	0	0	0	69	0.993228185	77.3349031	115	69	1.1	0.9;
	190	1	29.618794	0	0	0	68	1.00114469	97.5962115	115	68	1.1	0.9;
	191	1	29.618794	0	0	0	68	0.989865542	91.6123934	115	68	1.1	0.9;
	192	1	44.428191	0	0	0	68	0.996099794	94.6783187	115	68	1.1	0.9;
	193	1	59.237587	0	0	0	68	0.991599852	94.6306229	115	68	1.1	0.9;
	194	1	20.530668	0	0	0	70	1.01523508	80.7269491	115	70	1.1	0.9;
	195	1	6.843556	0	0	0	70	1.01518745	80.7150391	115	70	1.1	0.9;
	196	1	6.843556	0	0	0	70	1.01441106	80.6259632	115	70	1.1	0.9;
	197	1	14.398499	0	0	0	66	1.00963799	92.6891417	115	66	1.1	0.9;
	198	1	14.398499	0	0	0	66	0.998499147	90.5556279	115	66	1.1	0.9;
	199	1	14.398499	0	0	0	66	1.00272261	90.7920012	115	66	1.1	0.9;
	200	1	21.597749	0	0	0	66	1.00172363	91.5124586	115	66	1.1	0.9;
...
];

%% generator data
%	bus	Pg	Qg	Qmax	Qmin	Vg	mBase	status	Pmax	Pmin	Pc1	Pc2	Qc1min	Qc1max	Qc2min	Qc2max	ramp_agc	ramp_10	ramp_30	ramp_q	apf	mu_Pmax	mu_Pmin	mu_Qmax	mu_Qmin
mpc.gen = [
	6	2.744616	-0.188620708	1.8	-1.5	1.02	100	1	2.8	1	0	0	0	0	0	0	0	5000	15000	0	0	0.0000	0.0000	0.0000	0.0000;
	6	2.744616	-0.188620708	1.8	-1.5	1.02	100	1	2.8	1	0	0	0	0	0	0	0	5000	15000	0	0	0.0000	0.0000	0.0000	0.0000;
	6	2.94066	-0.229665642	2	-1.7	1.02	100	1	3	1	0	0	0	0	0	0	0	5000	15000	0	0	0.0000	0.0000	0.0000	0.0000;
	6	2.94066	-0.229665642	2	-1.7	1.02	100	1	3	1	0	0	0	0	0	0	0	5000	15000	0	0	0.0000	0.0000	0.0000	0.0000;
	15	7.841761	-1.25540104	5.2	-4.4	1.02	100	1	8	7	0	0	0	0	0	0	0	5000	15000	0	0	0.0000	0.0000	0.0000	0.0000;
	15	7.841761	-1.25540104	5.2	-4.4	1.02	100	1	8	7	0	0	0	0	0	0	0	5000	15000	0	0	0.0000	0.0000	0.0000	0.0000;
	17	0.017716	-9.9	11.7	-9.9	1.01	100	1	18.000001	10.5	0	0	0	0	0	0	0	101	303	0	0	0.0000	0.0000	0.0000	0.0000;
	17	17.88594	-9.9	11.7	-9.9	1.01	100	1	18.000001	11.4	0	0	0	0	0	0	0	102.5	307.5	0	0	0.0000	0.0000	0.0000	0.0000;
	17	17.88594	-9.9	11.7	-9.9	1.01	100	1	18.000001	11	0	0	0	0	0	0	0	100.5	301.5	0	0	0.0000	0.0000	0.0000	0.0000;
	17	17.88594	-9.9	11.7	-9.9	1.01	100	1	18.000001	11.2	0	0	0	0	0	0	0	99.5	298.5	0	0	0.0000	0.0000	0.0000	0.0000;
	17	17.88594	-9.9	11.7	-9.9	1.01	100	1	18.000001	11.4	0	0	0	0	0	0	0	76	228	0	0	0.0000	0.0000	0.0000	0.0000;
	17	17.88594	-9.9	11.7	-9.9	1.01	100	1	18.000001	10.7	0	0	0	0	0	0	0	102.5	307.5	0	0	0.0000	0.0000	0.0000	0.0000;
	17	17.88594	-9.9	11.7	-9.9	1.01	100	1	18.000001	9	0	0	0	0	0	0	0	102	306	0	0	0.0000	0.0000	0.0000	0.0000;
	17	41.535127	-23	27.200001	-23	1.01	100	1	41.800001	29.800001	0	0	0	0	0	0	0	246	738	0	0	0.0000	0.0000	0.0000	0.0000;
	17	0	0	27.200001	-23	1.01	100	0	41.800001	30.000001	0	0	0	0	0	0	0	250	750	0	0	0.0000	0.0000	0.0000	0.0000;
	17	0.041141	-23	27.200001	-23	1.01	100	1	41.800001	30.000001	0	0	0	0	0	0	0	252.5	757.5	0	0	0.0000	0.0000	0.0000	0.0000;
	17	13.354008	-23	27.200001	-23	1.01	100	1	41.800001	30.000001	0	0	0	0	0	0	0	243.5	730.5	0	0	0.0000	0.0000	0.0000	0.0000;
	17	139.619219	0	122.2	-103.400004	1.01	100	1	188	15.000001	0	0	0	0	0	0	0	79.8	239.4	0	0	0.0000	0.0000	0.0000	0.0000;
	17	186.808717	0	122.2	-103.400004	1.01	100	1	188	15.000001	0	0	0	0	0	0	0	76.2	228.6	0	0	0.0000	0.0000	0.0000	0.0000;
	18	15.898612	-8.8	10.4	-8.8	1.01	100	1	16	10	0	0	0	0	0	0	0	88	264	0	0	0.0000	0.0000	0.0000	0.0000;
	18	52.664155	0	34.5	-29.2	1.01	100	1	52.999997	37	0	0	0	0	0	0	0	235	705	0	0	0.0000	0.0000	0.0000	0.0000;
	18	52.664155	0	34.5	-29.2	1.01	100	1	52.999997	37	0	0	0	0	0	0	0	235	705	0	0	0.0000	0.0000	0.0000	0.0000;
	18	54.651493	-30.3	35.800001	-30.3	1.01	100	1	55.000001	40.000001	0	0	0	0	0	0	0	275.5	826.5	0	0	0.0000	0.0000	0.0000	0.0000;
	18	0	0	35.800001	-30.3	1.01	100	0	55.000001	44.100001	0	0	0	0	0	0	0	343	1029	0	0	0.0000	0.0000	0.0000	0.0000;
	19	15.898612	0.691388337	10.4	-8.8	1.02	100	1	16	10.6	0	0	0	0	0	0	0	79	237	0	0	0.0000	0.0000	0.0000	0.0000;
	19	0	0	251.600003	-212.899995	1.02	100	0	386.999989	40.000001	0	0	0	0	0	0	0	159.6	478.8	0	0	0.0000	0.0000	0.0000	0.0000;
	19	384.54771	16.7223937	251.600003	-212.899995	1.02	100	1	386.999989	30.000001	0	0	0	0	0	0	0	157.68	473.04	0	0	0.0000	0.0000	0.0000	0.0000;
	19	386.999989	16.7223937	251.600003	-212.899995	1.02	100	1	386.999989	40.000001	0	0	0	0	0	0	0	158.6	475.8	0	0	0.0000	0.0000	0.0000	0.0000;
	19	386.999989	16.7223937	251.600003	-212.899995	1.02	100	1	386.999989	40.000001	0	0	0	0	0	0	0	158.48	475.44	0	0	0.0000	0.0000	0.0000	0.0000;
	19	129.999995	-112.005778	9900	-9900	1.02	100	1	129.999995	129.999995	0	0	0	0	0	0	0	0	0	0	0	0.0000	0.0000	0.0000	0.0000;
	21	10.782421	7.2	7.2	-6.1	1.02	100	1	11	0.2	0	0	0	0	0	0	0	5000	15000	0	0	0.0000	0.0000	0.0000	0.0000;
	21	11.762641	7.8	7.8	-6.6	1.02	100	1	12	0.2	0	0	0	0	0	0	0	5000	15000	0	0	0.0000	0.0000	0.0000	0.0000;
	21	12.742861	8.5	8.5	-7.2	1.02	100	1	13	0.2	0	0	0	0	0	0	0	5000	15000	0	0	0.0000	0.0000	0.0000	0.0000;
	24	8.821981	4.91068176	5.9	-5	1.02	100	1	9	3	0	0	0	0	0	0	0	5000	15000	0	0	0.0000	0.0000	0.0000	0.0000;
	24	8.821981	4.91068176	5.9	-5	1.02	100	1	9	3	0	0	0	0	0	0	0	5000	15000	0	0	0.0000	0.0000	0.0000	0.0000;
	24	8.821981	4.91068176	5.9	-5	1.02	100	1	9	3	0	0	0	0	0	0	0	5000	15000	0	0	0.0000	0.0000	0.0000	0.0000;
	24	8.821981	4.91068176	5.9	-5	1.02	100	1	9	3	0	0	0	0	0	0	0	5000	15000	0	0	0.0000	0.0000	0.0000	0.0000;
	26	594.999981	37.844226	446.25001	-416.499996	1.02	100	1	594.999981	320.000005	0	0	0	0	0	0	0	900	2700	0	0	0.0000	0.0000	0.0000	0.0000;
	26	650	37.844226	487.5	-455.000019	1.02	100	1	650	320.000005	0	0	0	0	0	0	0	900	2700	0	0	0.0000	0.0000	0.0000	0.0000;
	27	121.823132	44.639749	91.949999	-85.820001	1.02	100	1	122.599995	41.999999	0	0	0	0	0	0	0	890	2670	0	0	0.0000	0.0000	0.0000	0.0000;
	28	0	0	47.174999	-44.029999	1.02	100	0	62.900001	34.999999	0	0	0	0	0	0	0	560	1680	0	0	0.0000	0.0000	0.0000	0.0000;
	29	111.2903	-8.32436938	72.799999	-61.6	1.02	100	1	112	31.999999	0	0	0	0	0	0	0	42.52	127.56	0	0	0.0000	0.0000	0.0000	0.0000;
	30	4.07402	-0.255328744	2.7	-2.3	1.02	100	1	4.1	0	0	0	0	0	0	0	0	0	0	0	0	0.0000	0.0000	0.0000	0.0000;
	30	55.048954	-3.30587248	36.000001	-30.500001	1.02	100	1	55.400002	0	0	0	0	0	0	0	0	0	0	0	0	0.0000	0.0000	0.0000	0.0000;
	31	0.98022	-0.216506928	0.7	-0.6	1.02	100	1	1	0.2	0	0	0	0	0	0	0	5000	15000	0	0	0.0000	0.0000	0.0000	0.0000;
	31	0.98022	-0.216506928	0.7	-0.6	1.02	100	1	1	0.2	0	0	0	0	0	0	0	5000	15000	0	0	0.0000	0.0000	0.0000	0.0000;
	31	2.548572	-0.48551652	1.7	-1.4	1.02	100	1	2.6	0.9	0	0	0	0	0	0	0	5000	15000	0	0	0.0000	0.0000	0.0000	0.0000;
	31	2.548572	-0.48551652	1.7	-1.4	1.02	100	1	2.6	0.9	0	0	0	0	0	0	0	5000	15000	0	0	0.0000	0.0000	0.0000	0.0000;
	31	2.548572	-0.48551652	1.7	-1.4	1.02	100	1	2.6	2.3	0	0	0	0	0	0	0	5000	15000	0	0	0.0000	0.0000	0.0000	0.0000;
	31	24.113415	-4.79765791	16	-13.500001	1.02	100	1	24.600001	6	0	0	0	0	0	0	0	5000	15000	0	0	0.0000	0.0000	0.0000	0.0000;
	31	24.113415	-4.79765791	16	-13.500001	1.02	100	1	24.600001	6	0	0	0	0	0	0	0	5000	15000	0	0	0.0000	0.0000	0.0000	0.0000;
	32	147.000003	-32.9405943	110.249996	-102.900004	1.02	100	1	147.000003	113	0	0	0	0	0	0	0	650	1950	0	0	0.0000	0.0000	0.0000	0.0000;
	33	56.241345	-9.97803277	42.449999	-39.62	1.02	100	1	56.599998	44	0	0	0	0	0	0	0	540	1620	0	0	0.0000	0.0000	0.0000	0.0000;
	34	57.036275	14.6864898	43.05	-40.180001	1.02	100	1	57.4	44.499999	0	0	0	0	0	0	0	500	1500	0	0	0.0000	0.0000	0.0000	0.0000;
	35	3.136704	2.1	2.1	-1.8	1.02	100	1	3.2	0	0	0	0	0	0	0	0	5000	15000	0	0	0.0000	0.0000	0.0000	0.0000;
	35	3.136704	2.1	2.1	-1.8	1.02	100	1	3.2	0	0	0	0	0	0	0	0	5000	15000	0	0	0.0000	0.0000	0.0000	0.0000;
	35	3.92088	2.6	2.6	-2.2	1.02	100	1	4	0	0	0	0	0	0	0	0	5000	15000	0	0	0.0000	0.0000	0.0000	0.0000;
	35	3.92088	2.6	2.6	-2.2	1.02	100	1	4	0	0	0	0	0	0	0	0	5000	15000	0	0	0.0000	0.0000	0.0000	0.0000;
	35	5.88132	3.9	3.9	-3.3	1.02	100	1	6	0	0	0	0	0	0	0	0	5000	15000	0	0	0.0000	0.0000	0.0000	0.0000;
	35	6.861541	4.6	4.6	-3.9	1.02	100	1	7	0	0	0	0	0	0	0	0	5000	15000	0	0	0.0000	0.0000	0.0000	0.0000;
	37	190.435088	23.9770294	165.974998	-154.910004	1.02	100	1	221.300006	103.999996	0	0	0	0	0	0	0	1590	4770	0	0	0.0000	0.0000	0.0000	0.0000;
	38	99.863166	-12.1796555	70.4	-55.299997	1.02	100	1	100.5	0	0	0	0	0	0	0	0	0	0	0	0	0.0000	0.0000	0.0000	0.0000;
	39	125.201583	-11.9043673	88.200003	-69.300002	1.02	100	1	125.999999	0	0	0	0	0	0	0	0	0	0	0	0	0.0000	0.0000	0.0000	0.0000;
	41	65.28368	14.8802128	49.274999	-45.989999	1.02	100	1	65.700001	40.599999	0	0	0	0	0	0	0	580	1740	0	0	0.0000	0.0000	0.0000	0.0000;
	52	16.097346	-0.0875559762	11.3	-8.9	1.02	100	1	16.2	0	0	0	0	0	0	0	0	0	0	0	0	0.0000	0.0000	0.0000	0.0000;
	53	37.262374	-8.52566489	26.300001	-20.6	1.02	100	1	37.5	0	0	0	0	0	0	0	0	0	0	0	0	0.0000	0.0000	0.0000	0.0000;
	60	0.784176	0.246762563	0.6	-0.4	1.02	100	1	0.8	0.4	0	0	0	0	0	0	0	5000	15000	0	0	0.0000	0.0000	0.0000	0.0000;
	60	9.802201	2.58453204	7	-5.5	1.02	100	1	10	4	0	0	0	0	0	0	0	5000	15000	0	0	0.0000	0.0000	0.0000	0.0000;
	63	0	0	66.149998	-61.739999	1.02	100	0	88.199997	60.000002	0	0	0	0	0	0	0	750	2250	0	0	0.0000	0.0000	0.0000	0.0000;
	63	653.643417	8.93224144	490.275002	-457.590008	1.02	100	1	653.700018	315.00001	0	0	0	0	0	0	0	900	2700	0	0	0.0000	0.0000	0.0000	0.0000;
	69	0	0	17.200001	-13.500001	1.02	100	0	24.5	5	0	0	0	0	0	0	0	10	30	0	0	0.0000	0.0000	0.0000	0.0000;
	69	24.344754	-1.34876521	17.200001	-13.500001	1.02	100	1	24.5	5	0	0	0	0	0	0	0	10	30	0	0	0.0000	0.0000	0.0000	0.0000;
	69	47.000274	-2.60788252	33.1	-25.999999	1.02	100	1	47.299999	9	0	0	0	0	0	0	0	235	705	0	0	0.0000	0.0000	0.0000	0.0000;
	69	0	0	20	-20	1.02	100	0	0	0	0	0	0	0	0	0	0	0	0	0	0	0.0000	0.0000	0.0000	0.0000;
	79	0	0	0.7	-0.6	1.02	100	0	1	0.3	0	0	0	0	0	0	0	2	6	0	0	0.0000	0.0000	0.0000	0.0000;
	79	0	0	0.9	-0.7	1.02	100	0	1.3	0.4	0	0	0	0	0	0	0	2.6	7.8	0	0	0.0000	0.0000	0.0000	0.0000;
	79	0	0	1	-0.8	1.02	100	0	1.4	0.4	0	0	0	0	0	0	0	2.8	8.4	0	0	0.0000	0.0000	0.0000	0.0000;
	79	0	0	1	-0.8	1.02	100	0	1.4	0.4	0	0	0	0	0	0	0	2.8	8.4	0	0	0.0000	0.0000	0.0000	0.0000;
	79	0	0	1.8	-1.4	1.02	100	0	2.5	0.1	0	0	0	0	0	0	0	0.6	1.8	0	0	0.0000	0.0000	0.0000	0.0000;
	79	0	0	1.9	-1.5	1.02	100	0	2.7	0.8	0	0	0	0	0	0	0	5.4	16.2	0	0	0.0000	0.0000	0.0000	0.0000;
	79	0	0	1.9	-1.5	1.02	100	0	2.7	0.8	0	0	0	0	0	0	0	5.4	16.2	0	0	0.0000	0.0000	0.0000	0.0000;
	79	0	0	2.1	-1.7	1.02	100	0	3	0.1	0	0	0	0	0	0	0	0.8	2.4	0	0	0.0000	0.0000	0.0000	0.0000;
	79	0	0	2.1	-1.7	1.02	100	0	3	0.1	0	0	0	0	0	0	0	0.8	2.4	0	0	0.0000	0.0000	0.0000	0.0000;
	79	7.452475	-0.541341055	5.3	-4.1	1.02	100	1	7.5	4	0	0	0	0	0	0	0	37.5	112.5	0	0	0.0000	0.0000	0.0000	0.0000;
	79	46.702179	-3.63945256	32.9	-25.9	1.02	100	1	47	1	0	0	0	0	0	0	0	233	699	0	0	0.0000	0.0000	0.0000	0.0000;
	79	0	0	109.300005	-85.900003	1.02	100	0	156.200004	44.999999	0	0	0	0	0	0	0	59.48	178.44	0	0	0.0000	0.0000	0.0000	0.0000;
	79	178.859413	-13.8193348	125.999999	-99.000001	1.02	100	1	179.999995	110.000002	0	0	0	0	0	0	0	398.2	1194.6	0	0	0.0000	0.0000	0.0000	0.0000;
	79	178.859413	-13.8193348	125.999999	-99.000001	1.02	100	1	179.999995	110.000002	0	0	0	0	0	0	0	390	1170	0	0	0.0000	0.0000	0.0000	0.0000;
	79	0	0	139.999998	-110.000002	1.02	100	0	200	64.999998	0	0	0	0	0	0	0	72.12	216.36	0	0	0.0000	0.0000	0.0000	0.0000;
	80	55.148321	-6.63476852	38.9	-30.500001	1.02	100	1	55.500001	15.000001	0	0	0	0	0	0	0	0	0	0	0	0.0000	0.0000	0.0000	0.0000;
	81	0	0	20	-20	1.0221	100	0	0	0	0	0	0	0	0	0	0	0	0	0	0	0.0000	0.0000	0.0000	0.0000;
	82	34.281385	-5.12981301	24.2	-19	1.02	100	1	34.5	0	0	0	0	0	0	0	0	0	0	0	0	0.0000	0.0000	0.0000	0.0000;
	83	7.841761	-2.03169405	5.6	-4.4	1.02	100	1	8	4	0	0	0	0	0	0	0	5000	15000	0	0	0.0000	0.0000	0.0000	0.0000;
	83	7.841761	-2.03169405	5.6	-4.4	1.02	100	1	8	4	0	0	0	0	0	0	0	5000	15000	0	0	0.0000	0.0000	0.0000	0.0000;
	84	10.782421	-0.991137473	7.7	-6.1	1.02	100	1	11	1	0	0	0	0	0	0	0	5000	15000	0	0	0.0000	0.0000	0.0000	0.0000;
	84	10.782421	-0.991137473	7.7	-6.1	1.02	100	1	11	1	0	0	0	0	0	0	0	5000	15000	0	0	0.0000	0.0000	0.0000	0.0000;
	95	66.575444	-0.0429873144	50.25	-46.900001	1.02	100	1	67.000002	37	0	0	0	0	0	0	0	510	1530	0	0	0.0000	0.0000	0.0000	0.0000;
	116	47.397739	-19.3333166	33.399999	-26.199999	1.02	100	1	47.7	41.999999	0	0	0	0	0	0	0	235	705	0	0	0.0000	0.0000	0.0000	0.0000;
	125	0	0	1.4	-1.1	1.02	100	0	2	0.1	0	0	0	0	0	0	0	4	12	0	0	0.0000	0.0000	0.0000	0.0000;
	125	0	0	76.574999	-71.469998	1.02	100	0	102.100003	75.999999	0	0	0	0	0	0	0	780	2340	0	0	0.0000	0.0000	0.0000	0.0000;
	127	708.878994	-62.3476025	669.824982	-625.169992	1.02	100	1	893.099976	666.400003	0	0	0	0	0	0	0	1200	3600	0	0	0.0000	0.0000	0.0000	0.0000;
	128	610.109282	-34.8467181	429.799986	-337.700009	1.02	100	1	613.999987	461.000013	0	0	0	0	0	0	0	15.106	45.318	0	0	0.0000	0.0000	0.0000	0.0000;
	150	0	0	0.7	-0.6	1.02	100	0	1	0.3	0	0	0	0	0	0	0	2	6	0	0	0.0000	0.0000	0.0000	0.0000;
	150	0	0	0.7	-0.6	1.02	100	0	1	0.3	0	0	0	0	0	0	0	2	6	0	0	0.0000	0.0000	0.0000	0.0000;
	150	0	0	12.6	-11.76	1.02	100	0	16.8	8.2	0	0	0	0	0	0	0	140	420	0	0	0.0000	0.0000	0.0000	0.0000;
	150	0	0	15.525	-14.489999	1.02	100	0	20.7	8.4	0	0	0	0	0	0	0	170	510	0	0	0.0000	0.0000	0.0000	0.0000;
	161	19.873267	0	14	-11	1.02	100	1	20	0	0	0	0	0	0	0	0	0	0	0	0	0.0000	0.0000	0.0000	0.0000;
	178	0	0	77.025002	-71.890002	1.02	100	0	102.699995	44.999999	0	0	0	0	0	0	0	540	1620	0	0	0.0000	0.0000	0.0000	0.0000;
	193	0	0	214.199996	-199.919999	1.02	100	0	285.599995	89.999998	0	0	0	0	0	0	0	900	2700	0	0	0.0000	0.0000	0.0000	0.0000;
	194	19.873267	0	14	-11	1.02	100	1	20	0	0	0	0	0	0	0	0	200	600	0	0	0.0000	0.0000	0.0000	0.0000;
	199	0	0	5	-4	1.02	100	0	7.2	1	0	0	0	0	0	0	0	2.88	8.64	0	0	0.0000	0.0000	0.0000	0.0000;
	199	0	0	12.7	-10	1.02	100	0	18.2	2	0	0	0	0	0	0	0	10	30	0	0	0.0000	0.0000	0.0000	0.0000;
	212	0	0	0.6	-0.4	1.02	100	0	0.8	0.6	0	0	0	0	0	0	0	0	0	0	0	0.0000	0.0000	0.0000	0.0000;
	212	0	0	0.6	-0.4	1.02	100	0	0.8	0.6	0	0	0	0	0	0	0	0	0	0	0	0.0000	0.0000	0.0000	0.0000;
	212	0	0	0.6	-0.4	1.02	100	0	0.8	0.6	0	0	0	0	0	0	0	0	0	0	0	0.0000	0.0000	0.0000	0.0000;
	212	0	0	0.6	-0.4	1.02	100	0	0.8	0.6	0	0	0	0	0	0	0	0	0	0	0	0.0000	0.0000	0.0000	0.0000;
	212	0	0	0.6	-0.4	1.02	100	0	0.8	0.6	0	0	0	0	0	0	0	0	0	0	0	0.0000	0.0000	0.0000	0.0000;
	212	0	0	0.6	-0.4	1.02	100	0	0.8	0.6	0	0	0	0	0	0	0	0	0	0	0	0.0000	0.0000	0.0000	0.0000;
	212	0	0	0.6	-0.4	1.02	100	0	0.8	0.6	0	0	0	0	0	0	0	0	0	0	0	0.0000	0.0000	0.0000	0.0000;
	212	0	0	0.6	-0.4	1.02	100	0	0.8	0.6	0	0	0	0	0	0	0	0	0	0	0	0.0000	0.0000	0.0000	0.0000;
	212	0	0	1.1	-0.9	1.02	100	0	1.6	0.8	0	0	0	0	0	0	0	0	0	0	0	0.0000	0.0000	0.0000	0.0000;
	212	0	0	1.1	-0.9	1.02	100	0	1.6	0.8	0	0	0	0	0	0	0	0	0	0	0	0.0000	0.0000	0.0000	0.0000;
	212	0	0	1.1	-0.9	1.02	100	0	1.6	0.8	0	0	0	0	0	0	0	0	0	0	0	0.0000	0.0000	0.0000	0.0000;
	234	0	0	0.8	-0.6	1.02	100	0	1.1	0.5	0	0	0	0	0	0	0	2	6	0	0	0.0000	0.0000	0.0000	0.0000;
	234	0	0	49.649999	-46.340001	1.02	100	0	66.2	48.800001	0	0	0	0	0	0	0	510	1530	0	0	0.0000	0.0000	0.0000	0.0000;
	250	0.392088	0.3	0.3	-0.2	1.02	100	1	0.4	0.1	0	0	0	0	0	0	0	5000	15000	0	0	0.0000	0.0000	0.0000	0.0000;
	250	0	0	2.1	-1.7	1.02	100	0	3	0.4	0	0	0	0	0	0	0	0.0572	0.1716	0	0	0.0000	0.0000	0.0000	0.0000;
	250	0	0	8.8	-6.9	1.02	100	0	12.5	4	0	0	0	0	0	0	0	0.325	0.975	0	0	0.0000	0.0000	0.0000	0.0000;
	250	12.546818	9	9	-7	1.02	100	1	12.800001	0	0	0	0	0	0	0	0	5000	15000	0	0	0.0000	0.0000	0.0000	0.0000;
	250	12.546818	9	9	-7	1.02	100	1	12.800001	0	0	0	0	0	0	0	0	5000	15000	0	0	0.0000	0.0000	0.0000	0.0000;
	250	0	0	10.5	-8.3	1.02	100	0	15.000001	4	0	0	0	0	0	0	0	0.39	1.17	0	0	0.0000	0.0000	0.0000	0.0000;
	250	17.643961	12.6	12.6	-9.9	1.02	100	1	18.000001	0	0	0	0	0	0	0	0	5000	15000	0	0	0.0000	0.0000	0.0000	0.0000;
	250	0	0	17.900001	-14.1	1.02	100	0	25.600001	5	0	0	0	0	0	0	0	0.6656	1.9968	0	0	0.0000	0.0000	0.0000	0.0000;
	250	0	0	17.900001	-14.1	1.02	100	0	25.600001	5	0	0	0	0	0	0	0	0.6656	1.9968	0	0	0.0000	0.0000	0.0000	0.0000;
	250	0	0	17.900001	-14.1	1.02	100	0	25.600001	5	0	0	0	0	0	0	0	0.6656	1.9968	0	0	0.0000	0.0000	0.0000	0.0000;
	250	0	0	17.900001	-14.1	1.02	100	0	25.600001	5	0	0	0	0	0	0	0	0.6656	1.9968	0	0	0.0000	0.0000	0.0000	0.0000;
	284	24.841583	12.3809168	17.5	-13.8	1.02	100	1	25	3	0	0	0	0	0	0	0	0	0	0	0	0.0000	0.0000	0.0000	0.0000;
	284	24.841583	12.3809168	17.5	-13.8	1.02	100	1	25	3	0	0	0	0	0	0	0	0	0	0	0	0.0000	0.0000	0.0000	0.0000;
	317	59.520429	0.477806586	44.925001	-41.929999	1.02	100	1	59.899998	40.000001	0	0	0	0	0	0	0	490	1470	0	0	0.0000	0.0000	0.0000	0.0000;
	339	39.249703	21.008488	27.700001	-21.699999	1.02	100	1	39.500001	3.5	0	0	0	0	0	0	0	0	0	0	0	0.0000	0.0000	0.0000	0.0000;
	357	877.702904	-39.007287	618.300009	-485.79998	1.02	100	1	883.300018	661.999989	0	0	0	0	0	0	0	22.2014	66.6042	0	0	0.0000	0.0000	0.0000	0.0000;
	358	542.534351	-29.9292657	407.175016	-380.029988	1.02	100	1	542.89999	225	0	0	0	0	0	0	0	900	2700	0	0	0.0000	0.0000	0.0000	0.0000;
	358	543.200016	-29.9458295	407.399988	-380.240011	1.02	100	1	543.200016	225	0	0	0	0	0	0	0	900	2700	0	0	0.0000	0.0000	0.0000	0.0000;
	368	29.809901	6.3103533	20.999999	-16.500001	1.02	100	1	30.000001	0.1	0	0	0	0	0	0	0	0	0	0	0	0.0000	0.0000	0.0000	0.0000;
	378	3.92088	1.87246563	2.8	-2.2	1.02	100	1	4	2.8	0	0	0	0	0	0	0	5000	15000	0	0	0.0000	0.0000	0.0000	0.0000;
	378	3.92088	1.87246563	2.8	-2.2	1.02	100	1	4	2.8	0	0	0	0	0	0	0	5000	15000	0	0	0.0000	0.0000	0.0000	0.0000;
	378	3.92088	1.87246563	2.8	-2.2	1.02	100	1	4	2.8	0	0	0	0	0	0	0	5000	15000	0	0	0.0000	0.0000	0.0000	0.0000;
	381	0	0	0.8	-0.6	1.02	100	0	1.1	0.2	0	0	0	0	0	0	0	2.2	6.6	0	0	0.0000	0.0000	0.0000	0.0000;
	381	63.793194	1.44271127	48.15	-44.940001	1.02	100	1	64.200002	47	0	0	0	0	0	0	0	540	1620	0	0	0.0000	0.0000	0.0000	0.0000;
	395	32.790887	-7.21574139	23.100001	-18.2	1.02	100	1	33.000001	0.3	0	0	0	0	0	0	0	0	0	0	0	0.0000	0.0000	0.0000	0.0000;
	395	60.613459	-13.3070484	42.699999	-33.6	1.02	100	1	61.000001	0.5	0	0	0	0	0	0	0	0	0	0	0	0.0000	0.0000	0.0000	0.0000;
	395	90.423363	-19.8334467	63.700002	-50.099999	1.02	100	1	91.000003	0.7	0	0	0	0	0	0	0	0	0	0	0	0.0000	0.0000	0.0000	0.0000;
	395	136.131895	-29.8405953	95.899999	-75.400001	1.02	100	1	137	1.1	0	0	0	0	0	0	0	0	0	0	0	0.0000	0.0000	0.0000	0.0000;
	399	73.531085	4.05778473	51.800001	-40.700001	1.02	100	1	74.000001	0	0	0	0	0	0	0	0	0	0	0	0	0.0000	0.0000	0.0000	0.0000;
	405	25.485721	-3.76251006	18.2	-14.300001	1.02	100	1	25.999999	1	0	0	0	0	0	0	0	5000	15000	0	0	0.0000	0.0000	0.0000	0.0000;
	406	14.703302	-1.36344969	10.5	-8.3	1.02	100	1	15.000001	1	0	0	0	0	0	0	0	5000	15000	0	0	0.0000	0.0000	0.0000	0.0000;
	407	24.5055	-3.8525209	17.5	-13.8	1.02	100	1	25	1	0	0	0	0	0	0	0	5000	15000	0	0	0.0000	0.0000	0.0000	0.0000;
	408	23.525281	-3.51654402	16.8	-13.2	1.02	100	1	23.999999	1	0	0	0	0	0	0	0	5000	15000	0	0	0.0000	0.0000	0.0000	0.0000;
	409	20.584621	1.92890001	14.7	-11.6	1.02	100	1	20.999999	1	0	0	0	0	0	0	0	5000	15000	0	0	0.0000	0.0000	0.0000	0.0000;
	463	1.274286	-0.0256994394	0.9	-0.7	1.02	100	1	1.3	0.2	0	0	0	0	0	0	0	5000	15000	0	0	0.0000	0.0000	0.0000	0.0000;
	463	6.861541	-0.191346916	4.9	-3.9	1.02	100	1	7	1	0	0	0	0	0	0	0	5000	15000	0	0	0.0000	0.0000	0.0000	0.0000;
	463	6.861541	-0.191346916	4.9	-3.9	1.02	100	1	7	1	0	0	0	0	0	0	0	5000	15000	0	0	0.0000	0.0000	0.0000	0.0000;
	463	6.861541	-0.191346916	4.9	-3.9	1.02	100	1	7	1	0	0	0	0	0	0	0	5000	15000	0	0	0.0000	0.0000	0.0000	0.0000;
	463	6.861541	-0.191346916	4.9	-3.9	1.02	100	1	7	1	0	0	0	0	0	0	0	5000	15000	0	0	0.0000	0.0000	0.0000	0.0000;
	463	6.861541	-0.191346916	4.9	-3.9	1.02	100	1	7	1	0	0	0	0	0	0	0	5000	15000	0	0	0.0000	0.0000	0.0000	0.0000;
	469	14.308752	5.47640247	10.1	-7.9	1.02	100	1	14.399999	2	0	0	0	0	0	0	0	0	0	0	0	0.0000	0.0000	0.0000	0.0000;
	474	8.821981	4.5043066	6.3	-5	1.02	100	1	9	4	0	0	0	0	0	0	0	5000	15000	0	0	0.0000	0.0000	0.0000	0.0000;
	474	46.070346	23.5560379	32.9	-25.9	1.02	100	1	47	8	0	0	0	0	0	0	0	5000	15000	0	0	0.0000	0.0000	0.0000	0.0000;
	492	0	0	29.499999	-23.199999	1.02	100	0	42.1	2	0	0	0	0	0	0	0	15.6	46.8	0	0	0.0000	0.0000	0.0000	0.0000;
	508	0	0	80.400002	-75.040001	1.02	100	0	107.200003	56	0	0	0	0	0	0	0	300	900	0	0	0.0000	0.0000	0.0000	0.0000;
	508	338.333488	-21.9288647	254.099989	-237.159991	1.02	100	1	338.800001	100.999999	0	0	0	0	0	0	0	300	900	0	0	0.0000	0.0000	0.0000	0.0000;
	526	17.643961	-0.596514684	12.6	-9.9	1.02	100	1	18.000001	1	0	0	0	0	0	0	0	5000	15000	0	0	0.0000	0.0000	0.0000	0.0000;
	535	41.634494	-0.803417411	29.300001	-23	1.02	100	1	41.9	5	0	0	0	0	0	0	0	200	600	0	0	0.0000	0.0000	0.0000	0.0000;
	535	769.999981	-65.147522	577.50001	-538.999987	1.02	100	1	769.999981	385.99999	0	0	0	0	0	0	0	900	2700	0	0	0.0000	0.0000	0.0000	0.0000;
	546	46.205348	0	32.600001	-25.600001	1.02	100	1	46.5	5	0	0	0	0	0	0	0	219	657	0	0	0.0000	0.0000	0.0000	0.0000;
	547	0	0	0.1	-0.1	1.02	100	0	0.2	0.1	0	0	0	0	0	0	0	0.5	1.5	0	0	0.0000	0.0000	0.0000	0.0000;
	547	0	0	0.3	-0.2	1.02	100	0	0.4	0.3	0	0	0	0	0	0	0	1	3	0	0	0.0000	0.0000	0.0000	0.0000;
	547	0	0	0.6	-0.4	1.02	100	0	0.8	0.2	0	0	0	0	0	0	0	2	6	0	0	0.0000	0.0000	0.0000	0.0000;
	547	0	0	0.7	-0.6	1.02	100	0	1	0.1	0	0	0	0	0	0	0	2	6	0	0	0.0000	0.0000	0.0000	0.0000;
	547	0	0	0.7	-0.6	1.02	100	0	1	0.3	0	0	0	0	0	0	0	2	6	0	0	0.0000	0.0000	0.0000	0.0000;
	547	0	0	0.7	-0.6	1.02	100	0	1	0.2	0	0	0	0	0	0	0	2	6	0	0	0.0000	0.0000	0.0000	0.0000;
	547	0	0	1.1	-0.8	1.02	100	0	1.5	0.1	0	0	0	0	0	0	0	3	9	0	0	0.0000	0.0000	0.0000	0.0000;
	547	0	0	1.1	-0.8	1.02	100	0	1.5	0.1	0	0	0	0	0	0	0	3	9	0	0	0.0000	0.0000	0.0000	0.0000;
	547	0	0	1.1	-0.8	1.02	100	0	1.5	0.3	0	0	0	0	0	0	0	3	9	0	0	0.0000	0.0000	0.0000	0.0000;
	547	0	0	1.4	-1.1	1.02	100	0	2	0.3	0	0	0	0	0	0	0	4	12	0	0	0.0000	0.0000	0.0000	0.0000;
	547	0	0	1.4	-1.1	1.02	100	0	2	0.3	0	0	0	0	0	0	0	4	12	0	0	0.0000	0.0000	0.0000	0.0000;
	547	0	0	1.8	-1.4	1.02	100	0	2.5	0.3	0	0	0	0	0	0	0	5	15	0	0	0.0000	0.0000	0.0000	0.0000;
	552	15.898612	-8.8	11.2	-8.8	1.01	100	1	16	10.6	0	0	0	0	0	0	0	83	249	0	0	0.0000	0.0000	0.0000	0.0000;
	552	0	0	37.099999	-29.2	1.01	100	0	52.999997	37	0	0	0	0	0	0	0	233.5	700.5	0	0	0.0000	0.0000	0.0000	0.0000;
	552	0	0	37.099999	-29.2	1.01	100	0	52.999997	37	0	0	0	0	0	0	0	235.5	706.5	0	0	0.0000	0.0000	0.0000	0.0000;
	552	186.808717	0	131.599998	-103.400004	1.01	100	1	188	15.000001	0	0	0	0	0	0	0	75.68	227.04	0	0	0.0000	0.0000	0.0000	0.0000;
	552	186.808717	0	131.599998	-103.400004	1.01	100	1	188	15.000001	0	0	0	0	0	0	0	77.88	233.64	0	0	0.0000	0.0000	0.0000	0.0000;
	554	69.970232	0	261.675	-244.230008	1.01	100	1	348.899984	229.999995	0	0	0	0	0	0	0	600	1800	0	0	0.0000	0.0000	0.0000	0.0000;
	556	528.000021	0	396.000004	-369.60001	1.02	100	1	528.000021	202.999997	0	0	0	0	0	0	0	900	2700	0	0	0.0000	0.0000	0.0000	0.0000;
	557	41.634494	6.307371	29.300001	-23	1.02	100	1	41.9	18.6	0	0	0	0	0	0	0	227.5	682.5	0	0	0.0000	0.0000	0.0000	0.0000;
	557	41.634494	6.307371	29.300001	-23	1.02	100	1	41.9	18.6	0	0	0	0	0	0	0	224	672	0	0	0.0000	0.0000	0.0000	0.0000;
	557	41.634494	6.307371	29.300001	-23	1.02	100	1	41.9	18.6	0	0	0	0	0	0	0	233	699	0	0	0.0000	0.0000	0.0000	0.0000;
	557	41.634494	6.307371	29.300001	-23	1.02	100	1	41.9	18.6	0	0	0	0	0	0	0	226	678	0	0	0.0000	0.0000	0.0000	0.0000;
	557	41.634494	6.307371	29.300001	-23	1.02	100	1	41.9	18.6	0	0	0	0	0	0	0	229	687	0	0	0.0000	0.0000	0.0000	0.0000;
	557	41.634494	6.307371	29.300001	-23	1.02	100	1	41.9	18.6	0	0	0	0	0	0	0	235	705	0	0	0.0000	0.0000	0.0000	0.0000;
...
];

%% branch data
%	fbus	tbus	r	x	b	rateA	rateB	rateC	ratio	angle	status	angmin	angmax	Pf	Qf	Pt	Qt
mpc.branch = [
	1	1405	0.00278	0.01149	0.0019	166.999996	555.999994	209.99999	1	0	1	1	0	19.0553	-0.4969	-19.0453	0.3473;
	1	1404	0.00277	0.01146	0.0019	166.999996	555.999994	209.99999	1	0	1	1	0	74.8410	-9.0865	-74.6846	9.5425;
	1	1403	0.00276	0.01141	0.00189	166.999996	555.999994	209.99999	1	0	1	1	0	74.9178	-9.1010	-74.7616	9.5565;
	1	1402	0.0028	0.01156	0.00192	115.999997	555.999994	145.000005	1	0	1	2	0	73.8276	-15.9307	-73.6690	16.3924;
	1	1422	0.0019	0.00785	0.0013	166.999996	555.999994	209.99999	1	0	1	1	0	25.3275	-0.1351	-25.3154	0.0543;
	1	1551	0.00437	0.01805	0.00299	555.999994	555.999994	555.999994	1	0	1	2	0	-174.8638	8.6157	176.1950	-3.4203;
	1	1551	0.00477	0.01973	0.00327	555.999994	555.999994	555.999994	1	0	1	1	0	-159.9893	7.8042	161.2056	-3.1046;
	1	1550	0.02427	0.10034	0.01662	115.999997	555.999994	145.000005	1	0	1	2	0	-70.8134	8.9055	72.0457	-5.5004;
	1	1550	0.02427	0.10034	0.01662	115.999997	555.999994	145.000005	1	0	1	1	0	-70.8134	8.9055	72.0457	-5.5004;
	1	242	0.00663	0.02741	0.00454	166.999996	555.999994	209.99999	1	0	1	1	0	44.9228	-9.9485	-44.7836	10.0671;
	1	228	0.01336	0.05524	0.00915	166.999996	555.999994	209.99999	1	0	1	2	0	41.4682	-4.8317	-41.2373	4.8679;
	1	228	0.01207	0.04989	0.00826	166.999996	555.999994	209.99999	1	0	1	1	0	45.9138	-5.2590	-45.6582	5.4868;
	1	199	0.00254	0.01051	0.00174	166.999996	555.999994	209.99999	1	0	1	1	0	17.8883	-0.1421	-17.8802	0.0005;
	1	1402	0.0028	0.01156	0.00192	115.999997	555.999994	145.000005	1	0	1	1	0	73.8276	-15.9307	-73.6690	16.3924;
	4	193	0.00102	0.00421	0.0007	166.999996	555.999994	209.99999	1	0	1	1	0	25.0345	-0.0541	-25.0280	0.0121;
	4	449	0.00637	0.02634	0.00436	166.999996	555.999994	209.99999	1	0	1	1	0	12.9244	-1.8200	-12.9134	1.4367;
	4	193	0.00103	0.00425	0.0007	166.999996	555.999994	209.99999	1	0	1	3	0	24.7985	-0.0556	-24.7920	0.0133;
	4	1527	0.00495	0.0211	0.0027	166.999996	555.999994	209.99999	1	0	1	2	0	-80.5191	0.9818	80.8453	0.1423;
	4	1527	0.00495	0.0211	0.0027	166.999996	555.999994	209.99999	1	0	1	1	0	-80.5191	0.9818	80.8453	0.1423;
	4	193	0.00105	0.00435	0.00072	166.999996	555.999994	209.99999	1	0	1	2	0	24.2338	-0.0338	-24.2275	-0.0110;
	9	851	0.00323	0.01336	0.00221	240.00001	555.999994	265.00001	1	0	1	1	0	116.1616	3.9459	-115.7365	-2.4133;
	9	524	0.01092	0.04516	0.00748	555.999994	555.999994	555.999994	1	0	1	1	0	6.7263	8.9272	-6.7123	-9.6332;
	10	450	0.00418	0.01729	0.00286	166.999996	555.999994	209.99999	1	0	1	1	0	-14.8094	-0.0000	14.8189	-0.2376;
	11	489	0.00196	0.00812	0.00134	166.999996	555.999994	209.99999	1	0	1	1	0	11.3061	-10.5406	-11.3015	10.4230;
	13	1442	0.00156	0.00646	0.00107	166.999996	555.999994	209.99999	1	0	1	1	0	-9.1530	-3.3410	9.1544	3.2369;
	13	196	0.00156	0.00645	0.00107	166.999996	555.999994	209.99999	1	0	1	1	0	-9.1409	-3.3423	9.1423	3.2381;
	14	460	0.00143	0.0059	0.00098	166.999996	555.999994	209.99999	1	0	1	1	0	2.0771	-0.0990	-2.0770	0.0000;
	15	402	0.0021	0.0087	0.00144	166.999996	555.999994	209.99999	1	0	1	1	0	-15.3996	4.8116	15.4049	-4.9396;
	16	391	0.02118	0.08756	0.0145	166.999996	555.999994	209.99999	1	0	1	1	0	38.8208	-8.8519	-38.4962	8.7066;
	16	1394	0.02598	0.10743	0.01779	166.999996	555.999994	209.99999	1	0	1	1	0	33.9801	-8.2325	-33.6742	7.6722;
	17	628	0.0017	0.0085	0.064	300	300	329.999995	1	0	1	0	0	156.1942	-64.7399	-155.7267	60.5030;
	17	1467	0.00302	0.10864	0	500	500	500	1	0	1	1	0	65.8924	-4.4101	-65.7638	9.0346;
	17	1467	0.00302	0.10864	0	500	500	500	1	0	1	2	0	65.8924	-4.4101	-65.7638	9.0346;
	17	628	0.0017	0.0085	0.064	300	300	329.999995	1	0	1	0	0	156.1942	-64.7399	-155.7267	60.5030;
	18	585	0.00802	0.01823	0.00036	250	250	250	1	0	1	1	0	98.1272	-16.8916	-97.3583	18.6022;
	18	561	0.04007	0.09109	0.00178	250	250	250	1	0	1	1	0	110.8771	-34.0958	-105.6655	45.7603;
	18	583	0.01009	0.02294	0.00045	200	250	200	1	0	1	1	0	60.8047	-9.1315	-60.4359	9.9237;
	18	1494	0.0032	0.00727	0.00014	250	250	250	1	0	1	2	0	-46.8536	7.2660	46.9231	-7.1224;
	18	1494	0.00357	0.00812	0.00016	250	250	250	1	0	1	1	0	-41.9596	6.4869	42.0218	-6.3619;
	18	1494	0.0032	0.00727	0.00014	250	250	250	1	0	1	3	0	-46.8536	7.2660	46.9231	-7.1224;
	19	1538	0.0038	0.01572	0.0026	555.999994	555.999994	555.999994	1	0	1	1	0	245.4191	-12.2294	-243.2138	21.0833;
	19	1538	0.0038	0.01572	0.0026	555.999994	555.999994	555.999994	1	0	1	5	0	245.4191	-12.2294	-243.2138	21.0833;
	19	1538	0.0038	0.01572	0.0026	555.999994	555.999994	555.999994	1	0	1	4	0	245.4191	-12.2294	-243.2138	21.0833;
	19	1538	0.0038	0.01572	0.0026	555.999994	555.999994	555.999994	1	0	1	2	0	245.4191	-12.2294	-243.2138	21.0833;
	19	1538	0.0038	0.01572	0.0026	555.999994	555.999994	555.999994	1	0	1	3	0	245.4191	-12.2294	-243.2138	21.0833;
	21	406	0.02031	0.06988	0.00859	115.999997	555.999994	145.000005	1	0	1	1	0	-24.6802	4.4707	24.8042	-4.9361;
	21	403	0.005	0.02069	0.00343	166.999996	555.999994	209.99999	1	0	1	1	0	23.8722	-6.9228	-23.8426	6.6899;
	25	83	0.0105	0.04341	0.00719	166.999996	555.999994	209.99999	1	0	1	1	0	-2.0770	0.0000	2.0775	-0.7461;
	26	557	1e-05	0.00018	0.00468	1215.99998	2454.00009	1804.00009	1	0	1	2	0	393.6715	7.1705	-393.6566	-7.3892;
	26	1468	0.00124	0.0559	0	1347.00003	1347.00003	1347.00003	1	0	1	1	0	478.3397	60.6663	-475.5689	64.2449;
	26	557	1e-05	0.00019	0.00501	1215.99998	2454.00009	1804.00009	1	0	1	1	0	372.9887	7.8517	-372.9754	-8.1187;
	29	152	0.00852	0.03523	0.00583	166.999996	555.999994	209.99999	1	0	1	1	0	-22.6921	6.3543	22.7379	-6.7712;
	30	55	0.02366	0.09785	0.0162	166.999996	555.999994	209.99999	1	0	1	1	0	53.6390	-9.7252	-52.9667	10.8240;
	30	131	0.00843	0.03485	0.00577	166.999996	555.999994	209.99999	1	0	1	1	0	-2.8733	6.1640	2.8773	-6.7463;
	32	84	0.0108	0.0428	0.0055	120.000005	555.999994	120.000005	1	0	1	1	0	4.7746	-1.4856	-4.7721	0.9234;
	32	474	0.00565	0.02337	0.00387	166.999996	555.999994	209.99999	1	0	1	1	0	77.5779	-18.2028	-77.2335	19.2248;
	32	678	0.006	0.027	0.0044	166.999996	555.999994	209.99999	1	0	1	2	0	50.5852	-10.8663	-50.4311	11.1020;
	32	31	0.0006	0.0027	0.00044	135.000002	555.999994	175	1	0	1	1	0	10.6405	-2.3858	-10.6398	2.3431;
	33	140	0.00862	0.03565	0.0059	166.999996	555.999994	209.99999	1	0	1	1	0	84.4282	-13.8642	-83.8224	15.7570;
	33	1469	0.01066	0.04408	0.0073	166.999996	555.999994	209.99999	1	0	1	1	0	-33.2369	3.8862	33.3519	-4.1712;
	35	485	0.01865	0.07712	0.01277	115.999997	555.999994	145.000005	1	0	1	2	0	49.5004	-25.4079	-48.9281	26.4857;
	35	485	0.01865	0.07712	0.01277	115.999997	555.999994	145.000005	1	0	1	1	0	49.5004	-25.4079	-48.9281	26.4857;
	35	191	0.01727	0.07139	0.01182	166.999996	555.999994	209.99999	1	0	1	1	0	35.3612	4.3566	-35.1407	-4.6142;
	35	36	0.00018	0.00076	0.00013	175	563.000011	175	1	0	1	2	0	-71.3715	32.1796	71.3825	-32.1460;
	35	36	0.00018	0.00076	0.00013	175	563.000011	175	1	0	1	1	0	-71.3715	32.1796	71.3825	-32.1460;
	36	192	0.00793	0.03281	0.00543	175	555.999994	175	1	0	1	2	0	-78.5819	29.0507	79.1408	-27.2788;
	36	192	0.00793	0.03281	0.00543	175	555.999994	175	1	0	1	1	0	-78.5819	29.0507	79.1408	-27.2788;
	36	190	0.02914	0.1205	0.01995	166.999996	555.999994	209.99999	1	0	1	1	0	-61.8188	14.8541	63.0078	-11.9329;
	37	273	0.00153	0.00631	0.00104	166.999996	555.999994	209.99999	1	0	1	1	0	2.5251	-0.1078	-2.5250	0.0000;
	37	270	0.00334	0.01382	0.00229	166.999996	555.999994	209.99999	1	0	1	2	0	78.9866	10.5510	-78.7827	-9.9444;
	37	270	0.00261	0.01077	0.00178	166.999996	555.999994	209.99999	1	0	1	1	0	101.3484	13.5339	-101.0860	-12.6358;
	38	97	0.01486	0.06145	0.01018	166.999996	555.999994	209.99999	1	0	1	1	0	21.2696	-0.8693	-21.2050	0.0803;
	38	91	0.00853	0.03527	0.00584	166.999996	555.999994	209.99999	1	0	1	1	0	73.5435	-11.3104	-73.0901	12.5786;
	39	1469	0.00149	0.0623	0	325.999999	369.000006	423.000002	1	0	1	1	0	37.5731	-3.3193	-37.5527	4.1712;
	39	1307	0.00092	0.0074	0.02824	453.000021	935.999966	578.999996	1	0	1	1	0	87.6285	-8.5851	-87.5602	6.1975;
	42	1576	0.00889	0.03675	0.00609	166.999996	555.999994	209.99999	1	0	1	1	0	-24.8010	-3.5592	24.8544	3.1445;
	42	1576	0.00886	0.03666	0.00607	166.999996	555.999994	209.99999	1	0	1	2	0	-24.8624	-3.5716	24.9160	3.1595;
	42	46	0.00072	0.00296	0.00049	166.999996	555.999994	209.99999	1	0	1	1	0	7.5755	-0.1364	-7.5751	0.0871;
	42	1330	0.00036	0.00149	0.00025	166.999996	555.999994	209.99999	1	0	1	1	0	-63.4895	16.6495	63.5044	-16.6138;
	45	1330	0.0088	0.03638	0.00602	166.999996	555.999994	209.99999	1	0	1	1	0	-16.3985	0.7122	16.4214	-1.2432;
	45	44	0.00034	0.00142	0.00023	166.999996	555.999994	209.99999	1	0	1	1	0	2.5250	-0.0238	-2.5250	0.0000;
	45	43	0.00052	0.00217	0.00036	166.999996	555.999994	209.99999	1	0	1	1	0	6.2984	-0.6884	-6.2982	0.6518;
	46	1438	0.00123	0.00508	0.00084	166.999996	555.999994	209.99999	1	0	1	1	0	2.5251	-0.0871	-2.5250	0.0000;
	48	86	0.01054	0.04358	0.00722	166.999996	555.999994	209.99999	1	0	1	1	0	-18.0651	8.5480	18.1063	-9.1276;
	48	1369	0.02381	0.09844	0.0163	166.999996	555.999994	209.99999	1	0	1	1	0	-1.2387	2.2043	1.2412	-3.8854;
	48	1108	0.01146	0.0474	0.00785	166.999996	555.999994	209.99999	1	0	1	1	0	4.6043	-5.3727	-4.5992	4.5755;
	50	412	0.00331	0.01367	0.00226	166.999996	555.999994	209.99999	1	0	1	1	0	-2.2200	0.0332	2.2202	-0.2617;
	51	131	0.00276	0.01143	0.00189	166.999996	555.999994	209.99999	1	0	1	1	0	-4.1786	-0.0000	4.1791	-0.1939;
	52	131	0.01481	0.06124	0.01014	166.999996	555.999994	209.99999	1	0	1	1	0	11.9187	-0.0876	-11.8985	-0.8816;
	53	152	0.03542	0.14646	0.02425	166.999996	555.999994	209.99999	1	0	1	1	0	31.4465	-7.8403	-31.0951	6.7712;
	54	132	0.00359	0.02888	0.11019	453.000021	935.999966	578.999996	1	0	1	1	0	-104.5412	28.5117	104.9535	-36.7488;
	55	56	0.00881	0.03642	0.00603	166.999996	555.999994	209.99999	1	0	1	1	0	31.0976	-6.2662	-31.0123	5.9949;
	56	57	0.01171	0.04844	0.00802	166.999996	555.999994	209.99999	1	0	1	1	0	22.6550	-5.9949	-22.5934	5.4203;
	57	133	0.01248	0.05159	0.00854	166.999996	555.999994	209.99999	1	0	1	1	0	14.2361	-5.4203	-14.2086	4.6496;
	58	353	0.00193	0.00799	0.00132	417.000008	417.000008	417.000008	1	0	1	1	0	119.6067	-6.2843	-119.3402	7.2506;
	58	1552	0.00016	0.00068	0.00011	417.000008	417.000008	417.000008	1	0	1	1	0	-125.8747	6.2843	125.8991	-6.1918;
	59	1220	0.00149	0.0623	0	325	325	325	1	0	1	0	0	-162.1549	8.4793	162.5324	7.3046;
	59	83	0.00638	0.02637	0.00437	166.999996	555.999994	209.99999	1	0	1	1	0	-3.6832	1.2066	3.6841	-1.6574;
	59	15	0.03648	0.15084	0.02498	166.999996	555.999994	209.99999	1	0	1	1	0	-26.6622	5.8271	26.9292	-7.3224;
	59	83	0.00637	0.02632	0.00436	166.999996	555.999994	209.99999	1	0	1	2	0	-3.6900	1.2101	3.6909	-1.6598;
	60	500	0.03202	0.0728	0.00142	95.999998	250	123.000002	1	0	1	1	0	-8.0422	1.2759	8.0627	-1.3774;
	61	1289	0.02343	0.09689	0.01604	166.999996	555.999994	209.99999	1	0	1	2	0	6.5202	-4.8248	-6.5069	3.2155;
	61	1289	0.02422	0.10014	0.01658	166.999996	555.999994	209.99999	1	0	1	1	0	6.3083	-4.7233	-6.2955	3.0562;
	62	722	0.00025	0.00383	0.09893	1215.99998	2454.00009	1804.00009	1	0	1	1	0	572.9051	-27.8446	-572.1152	29.6562;
	63	800	0.00024	0.00373	0.096	1215.99998	1215.99998	1804.00009	1	0	1	1	0	80.7383	36.7467	-80.7192	-46.4216;
	63	62	0	5e-05	0.00123	1215.99998	1215.99998	1804.00009	1	0	1	1	0	572.9051	-27.8144	-572.9051	27.8446;
	64	422	6e-05	0.00024	4e-05	166.999996	555.999994	209.99999	1	0	1	1	0	-2.0770	-0.0000	2.0770	-0.0040;
	65	1573	0.00587	0.02425	0.00402	166.999996	555.999994	209.99999	1	0	1	1	0	-9.2048	2.3348	9.2100	-2.7327;
	68	134	0.01482	0.0613	0.01015	166.999996	555.999994	209.99999	1	0	1	1	0	8.7509	2.3738	-8.7387	-3.3705;
	69	77	0.01769	0.07315	0.01211	166.999996	555.999994	209.99999	1	0	1	2	0	-2.1476	-0.6277	2.1484	-0.6294;
	69	77	0.0177	0.07319	0.01212	166.999996	555.999994	209.99999	1	0	1	1	0	-2.1464	-0.6282	2.1472	-0.6299;
	71	1572	0.01784	0.07378	0.01222	166.999996	555.999994	209.99999	1	0	1	1	0	-32.2028	1.1574	32.3803	-1.7071;
	71	78	0.01035	0.04279	0.00709	166.999996	555.999994	209.99999	1	0	1	1	0	10.3930	-0.4335	-10.3823	-0.2630;
	73	74	0.00162	0.00669	0.00111	166.999996	555.999994	209.99999	1	0	1	1	0	6.7601	1.0342	-6.7594	-1.1466;
	74	1416	0.00146	0.00605	0.001	166.999996	555.999994	209.99999	1	0	1	1	0	3.7698	1.1431	-3.7696	-1.2462;
	74	1363	0.00254	0.01052	0.00174	166.999996	555.999994	209.99999	1	0	1	1	0	-10.7546	-1.1221	10.7575	0.9528;
	77	1324	0.01823	0.07537	0.01248	166.999996	555.999994	209.99999	1	0	1	2	0	-5.7968	1.2703	5.8034	-2.5422;
	77	1324	0.01823	0.07539	0.01248	166.999996	555.999994	209.99999	1	0	1	1	0	-5.7955	1.2694	5.8020	-2.5413;
	77	78	0.01449	0.0599	0.00992	166.999996	555.999994	209.99999	1	0	1	1	0	-5.3282	-1.2803	5.3323	0.2630;
	79	1136	8e-05	0.00129	0.03339	1215.99998	2454.00009	1804.00009	1	0	1	1	0	345.7448	-22.4319	-345.6526	20.4455;
	79	1136	8e-05	0.00129	0.03342	1215.99998	2454.00009	1804.00009	1	0	1	2	0	345.7448	-22.4334	-345.6526	20.4439;
	80	375	0.00312	0.01291	0.00214	166.999996	555.999994	209.99999	1	0	1	1	0	16.1825	-1.4838	-16.1746	1.2939;
	81	1465	0.02539	0.10501	0.01739	166.999996	555.999994	209.99999	1	0	1	1	0	13.5403	0.1044	-13.4955	-1.7281;
	81	122	0.00663	0.02743	0.00454	166.999996	555.999994	209.99999	1	0	1	1	0	19.0056	-0.1927	-18.9827	-0.1861;
	81	112	0.02605	0.10774	0.01784	166.999996	555.999994	209.99999	1	0	1	1	0	12.1646	-0.3895	-12.1276	-1.3147;
	81	1559	0.00227	0.00937	0.00155	166.999996	555.999994	209.99999	1	0	1	1	0	-32.8513	0.2516	32.8748	-0.3169;
	81	1559	0.00227	0.0094	0.00156	166.999996	555.999994	209.99999	1	0	1	2	0	-32.7525	0.2262	32.7758	-0.2927;
	85	1337	0.00563	0.02326	0.00385	166.999996	555.999994	209.99999	1	0	1	1	0	-2.5250	-0.0000	2.5254	-0.3975;
	86	87	0.00291	0.01205	0.00199	166.999996	555.999994	209.99999	1	0	1	1	0	-23.1563	9.1276	23.1737	-9.2615;
	87	1368	0.01345	0.0556	0.00921	166.999996	555.999994	209.99999	1	0	1	1	0	16.8319	-3.8624	-16.7937	3.0672;
	87	88	0.00235	0.00972	0.00161	166.999996	555.999994	209.99999	1	0	1	1	0	-47.5807	13.1239	47.6360	-13.0618;
	88	1391	0.00076	0.00313	0.00052	166.999996	555.999994	209.99999	1	0	1	1	0	-52.6860	13.0618	52.7077	-13.0265;
	89	1391	0.00012	0.00051	8e-05	166.999996	555.999994	209.99999	1	0	1	1	0	-2.5250	-0.0000	2.5250	-0.0083;
	90	91	0.0024	0.00994	0.00165	166.999996	555.999994	209.99999	1	0	1	1	0	-67.9293	12.8667	68.0401	-12.5786;
	90	1391	0.0018	0.00743	0.00123	166.999996	555.999994	209.99999	1	0	1	1	0	62.8793	-12.8667	-62.8077	13.0347;
	93	1565	0.00934	0.03861	0.00639	166.999996	555.999994	209.99999	1	0	1	1	0	-50.9065	7.8360	51.1458	-7.5113;
	93	131	0.015	0.06204	0.01027	166.999996	555.999994	209.99999	1	0	1	1	0	36.5080	-7.8360	-36.3077	7.5997;
	94	95	0.00138	0.00572	0.00095	166.999996	555.999994	209.99999	1	0	1	1	0	-59.3294	0.1381	59.3762	-0.0430;
	98	99	0.01014	0.04193	0.00694	166.999996	555.999994	209.99999	1	0	1	1	0	29.3063	-1.9544	-29.2214	1.5931;
	98	131	0.01067	0.04414	0.00731	166.999996	555.999994	209.99999	1	0	1	1	0	-43.7048	1.9544	43.9035	-1.8873;
	105	1436	6e-05	0.00025	4e-05	166.999996	555.999994	209.99999	1	0	1	1	0	10.8413	4.0237	-10.8413	-4.0275;
	105	1433	0.01693	0.07002	0.01159	166.999996	555.999994	209.99999	1	0	1	1	0	12.6523	-1.8174	-12.6257	0.7355;
	105	1365	0.00407	0.01683	0.00279	166.999996	555.999994	209.99999	1	0	1	1	0	-14.0987	-0.4044	14.1066	0.1495;
	105	309	0.00227	0.0094	0.00156	166.999996	555.999994	209.99999	1	0	1	1	0	8.5056	-3.0139	-8.5039	2.8607;
	105	309	0.00227	0.00939	0.00155	166.999996	555.999994	209.99999	1	0	1	2	0	8.5135	-3.0184	-8.5117	2.8662;
	105	262	0.01823	0.07536	0.01248	166.999996	555.999994	209.99999	1	0	1	1	0	-11.8659	-0.6799	11.8908	-0.5046;
	105	1364	0.00405	0.01676	0.00278	166.999996	555.999994	209.99999	1	0	1	1	0	-14.1415	-0.4079	14.1494	0.1541;
	106	1364	6e-05	0.00024	4e-05	166.999996	555.999994	209.99999	1	0	1	1	0	-2.4760	0.0061	2.4760	-0.0102;
	106	1365	8e-05	0.00034	6e-05	166.999996	555.999994	209.99999	1	0	1	1	0	-2.5740	-0.0061	2.5740	-0.0001;
	107	1566	0.00777	0.03214	0.00532	166.999996	555.999994	209.99999	1	0	1	3	0	-20.4418	0.0685	20.4733	-0.4890;
	107	1566	0.00777	0.03213	0.00532	166.999996	555.999994	209.99999	1	0	1	2	0	-20.4478	0.0701	20.4793	-0.4906;
	107	1566	0.00785	0.03244	0.00537	166.999996	555.999994	209.99999	1	0	1	1	0	-20.2517	0.0672	20.2828	-0.4941;
	107	1365	0.00528	0.02184	0.00362	166.999996	555.999994	209.99999	1	0	1	1	0	24.2857	-0.0995	-24.2556	-0.1494;
	107	1364	0.0053	0.0219	0.00363	166.999996	555.999994	209.99999	1	0	1	1	0	24.2306	-0.1063	-24.2005	-0.1439;
	108	1568	0.00685	0.02832	0.00469	166.999996	555.999994	209.99999	1	0	1	1	0	-14.6665	-1.6948	14.6807	1.2635;
	108	133	0.02302	0.09519	0.01576	166.999996	555.999994	209.99999	1	0	1	1	0	6.3092	1.6948	-6.2990	-3.2917;
	109	1568	0.00789	0.03261	0.0054	166.999996	555.999994	209.99999	1	0	1	1	0	2.5266	-6.7083	-2.5230	6.1590;
	109	124	0.01167	0.04826	0.00799	166.999996	555.999994	209.99999	1	0	1	1	0	-10.8839	6.7083	10.9029	-7.4615;
	110	1568	0.01636	0.06764	0.0112	166.999996	555.999994	209.99999	1	0	1	1	0	-46.4408	6.8251	46.7885	-6.5561;
	110	114	0.02289	0.09466	0.01567	166.999996	555.999994	209.99999	1	0	1	1	0	20.6494	-3.4467	-20.5540	2.2138;
	112	1465	0.00715	0.02956	0.00489	166.999996	555.999994	209.99999	1	0	1	1	0	3.7703	1.3147	-3.7692	-1.8169;
	113	1265	0.00202	0.00837	0.00139	166.999996	555.999994	209.99999	1	0	1	1	0	4.1790	-0.1426	-4.1786	0.0000;
	113	1218	3e-05	0.00014	2e-05	166.999996	555.999994	209.99999	1	0	1	1	0	-12.5363	0.1426	12.5363	-0.1444;
	114	1466	0.00648	0.0268	0.00444	166.999996	555.999994	209.99999	1	0	1	1	0	12.1968	-2.2138	-12.1872	1.7932;
	115	1559	0.01298	0.05366	0.00888	166.999996	555.999994	209.99999	1	0	1	1	0	-47.1682	7.6538	47.4536	-7.4011;
	115	205	0.03321	0.13731	0.02274	166.999996	555.999994	209.99999	1	0	1	1	0	38.8109	-7.6538	-38.3175	7.3305;
	116	1559	0.00595	0.0246	0.00407	166.999996	555.999994	209.99999	1	0	1	1	0	17.3817	-15.9443	-17.3503	15.6497;
	116	120	0.01538	0.0636	0.01053	166.999996	555.999994	209.99999	1	0	1	1	0	21.6587	-3.3890	-21.5882	2.5867;
	117	121	0.00385	0.01594	0.00264	166.999996	555.999994	209.99999	1	0	1	1	0	20.2319	0.5225	-20.2168	-0.7346;
	117	122	0.00162	0.00669	0.00111	166.999996	555.999994	209.99999	1	0	1	1	0	-10.6237	-0.2945	10.6254	0.1861;
	117	1559	0.00982	0.0406	0.00672	166.999996	555.999994	209.99999	1	0	1	1	0	-22.1442	-0.2279	22.1904	-0.2825;
	118	119	0.00744	0.03076	0.00509	166.999996	555.999994	209.99999	1	0	1	1	0	-4.8596	1.6240	4.8615	-2.1439;
	118	123	0.01054	0.04357	0.00721	166.999996	555.999994	209.99999	1	0	1	1	0	-3.4977	-1.6240	3.4991	0.8811;
	119	120	0.00694	0.0287	0.00475	166.999996	555.999994	209.99999	1	0	1	1	0	-13.2188	2.1439	13.2309	-2.5867;
	121	123	0.00224	0.00926	0.00153	166.999996	555.999994	209.99999	1	0	1	1	0	11.8595	0.7346	-11.8564	-0.8811;
	124	29	0.03314	0.13704	0.02269	166.999996	555.999994	209.99999	1	0	1	1	0	-38.4196	8.5376	38.9207	-8.8239;
	124	149	0.03175	0.1313	0.02174	166.999996	555.999994	209.99999	1	0	1	1	0	13.1765	-4.5461	-13.1199	2.5215;
	124	55	0.03506	0.14498	0.02401	166.999996	555.999994	209.99999	1	0	1	1	0	-9.3000	2.2055	9.3332	-4.5578;
	125	415	0.00237	0.0098	0.00162	166.999996	555.999994	209.99999	1	0	1	1	0	3.8456	-1.3219	-3.8453	1.1559;
	125	418	0.0026	0.01555	0.0023	220.000005	251.999998	279.999995	1	0	1	0	0	56.6357	-6.7952	-56.5540	7.0461;
	126	415	0.00143	0.00592	0.00098	166.999996	555.999994	209.99999	1	0	1	1	0	-2.0770	0.0000	2.0771	-0.1011;
	127	1520	0.01282	0.05301	0.00878	166.999996	555.999994	209.99999	1	0	1	2	0	30.1566	-1.6806	-30.0443	1.2340;
	127	510	0.00302	0.0125	0.00207	166.999996	555.999994	209.99999	1	0	1	2	0	91.6361	-9.4334	-91.3899	10.2377;
	127	505	0.00401	0.01657	0.00274	166.999996	555.999994	209.99999	1	0	1	1	0	34.6268	-1.6466	-34.5805	1.5531;
	127	510	0.00303	0.01253	0.00208	166.999996	555.999994	209.99999	1	0	1	1	0	91.4102	-9.4301	-91.1643	10.2308;
	127	814	0.00847	0.03501	0.0058	166.999996	555.999994	209.99999	1	0	1	1	0	71.9279	-4.1157	-71.5055	5.2607;
	127	1441	0.01123	0.04643	0.00769	166.999996	555.999994	209.99999	1	0	1	1	0	3.4231	-0.7946	-3.4218	0.0000;
	127	1520	0.01282	0.05301	0.00878	166.999996	555.999994	209.99999	1	0	1	1	0	30.1566	-1.6806	-30.0443	1.2340;
	127	813	0.00461	0.01906	0.00316	185.000002	555.999994	209.99999	1	0	1	3	0	107.1425	-11.2009	-106.6284	12.9983;
	127	813	0.00461	0.01908	0.00316	185.000002	555.999994	209.99999	1	0	1	1	0	107.0390	-11.1643	-106.5260	12.9597;
	127	813	0.00461	0.01906	0.00316	185.000002	555.999994	209.99999	1	0	1	2	0	107.1425	-11.2009	-106.6284	12.9983;
	128	220	0.00383	0.01585	0.00262	166.999996	555.999994	209.99999	1	0	1	3	0	84.8074	-3.2565	-84.5423	4.0818;
	128	220	0.0038	0.01572	0.0026	166.999996	555.999994	209.99999	1	0	1	1	0	85.5067	-3.2885	-85.2393	4.1249;
	128	220	0.00383	0.01585	0.00262	166.999996	555.999994	209.99999	1	0	1	2	0	84.8074	-3.2565	-84.5423	4.0818;
	129	250	0.00953	0.03941	0.00653	166.999996	555.999994	209.99999	1	0	1	1	0	-30.2140	5.4025	30.3031	-5.6953;
	129	250	0.00908	0.03756	0.00622	166.999996	555.999994	209.99999	1	0	1	2	0	-31.7031	5.6986	31.7965	-5.9418;
	131	1252	0.01387	0.05735	0.0095	166.999996	555.999994	209.99999	1	0	1	1	0	-27.8257	2.1096	27.9302	-2.6643;
	132	1470	0.00149	0.0623	0	325.999999	369.000006	423.000002	1	0	1	1	0	43.3410	-1.6507	-43.3141	2.7745;
	132	1250	0.00075	0.00602	0.02297	453.000021	935.999966	578.999996	1	0	1	1	0	-148.2944	38.3995	148.4639	-39.4321;
	134	288	0.0025	0.01032	0.00171	166.999996	555.999994	209.99999	1	0	1	1	0	2.2648	2.0518	-2.2645	-2.2266;
...
];

%%-----  OPF Data  -----%%
%% generator cost data
%	1	startup	shutdown	n	x1	y1	...	xn	yn
%	2	startup	shutdown	n	c(n-1)	...	c0
mpc.gencost = [
	2	0	0	2	0	0;
	2	0	0	2	0	0;
	2	0	0	2	0	0;
	2	0	0	2	0	0;
	2	0	0	2	0	0;
	2	0	0	2	0	0;
	2	2000	0	2	31.5	120;
	2	2000	0	2	31.5	120;
	2	2000	0	2	31.5	120;
	2	2000	0	2	31.5	120;
	2	2000	0	2	31.5	120;
	2	2000	0	2	31.5	120;
	2	2000	0	2	31.5	120;
	2	2000	0	2	31.5	120;
	2	2000	0	2	33.643116	97.6846612;
	2	2000	0	2	31.5	120;
	2	2000	0	2	31.5	120;
	2	2500	0	2	31.5	660;
	2	2500	0	2	31.5	660;
	2	500	0	2	200.1	3220;
	2	2000	0	2	31.5	120;
	2	2000	0	2	31.5	120;
	2	500	0	2	200.1	3220;
	2	500	0	2	31.5	120;
	2	500	0	2	200.1	3220;
	2	2500	0	2	29.5505428	345.530172;
	2	2500	0	2	28.9042711	403.427877;
	2	2500	0	2	28.9469282	552.794797;
	2	2500	0	2	31.5	660;
	2	0	0	2	0	0;
	2	0	0	2	0	0;
	2	0	0	2	0	0;
	2	0	0	2	0	0;
	2	0	0	2	0	0;
	2	0	0	2	0	0;
	2	0	0	2	0	0;
	2	0	0	2	0	0;
	2	6440	0	2	15.3798878	5634.49101;
	2	6120	0	2	23.34	900;
	2	1050	0	2	21.784	840;
	2	665	0	2	14.8234256	458.127255;
	2	2500	0	2	26.25	550;
	2	0	0	2	0	0;
	2	0	0	2	0	0;
	2	0	0	2	0	0;
	2	0	0	2	0	0;
	2	0	0	2	0	0;
	2	0	0	2	0	0;
	2	0	0	2	0	0;
	2	0	0	2	0	0;
	2	0	0	2	0	0;
	2	1357	0	2	19.6251596	663.548206;
	2	631	0	2	20.1380085	373.960486;
	2	593	0	2	21.5238386	274.667707;
	2	0	0	2	0	0;
	2	0	0	2	0	0;
	2	0	0	2	0	0;
	2	0	0	2	0	0;
	2	0	0	2	0	0;
	2	0	0	2	0	0;
	2	2318	0	2	33.2623055	540.871708;
	2	0	0	2	0	0;
	2	0	0	2	0	0;
	2	685	0	2	29.8282956	257.373033;
	2	0	0	2	0	0;
	2	0	0	2	0	0;
	2	0	0	2	0	0;
	2	0	0	2	0	0;
	2	880	0	2	26.6049323	57.4467483;
	2	6757	0	2	21.8385166	50.7686835;
	2	2500	0	2	31.5	660;
	2	2500	0	2	31.5	660;
	2	2000	0	2	26.25	100;
	2	0	0	2	0	0;
	2	500	0	2	207	0;
	2	500	0	2	207	0;
	2	500	0	2	207	0;
	2	500	0	2	207	0;
	2	500	0	2	207	0;
	2	500	0	2	207	0;
	2	500	0	2	207	0;
	2	500	0	2	207	0;
	2	500	0	2	207	0;
	2	2000	0	2	200.1	3220;
	2	2000	0	2	200.1	3220;
	2	2500	0	2	31.5	660;
	2	2000	0	2	23.8824701	1358.98263;
	2	2000	0	2	23.8136738	1344.48254;
	2	2500	0	2	31.5	660;
	2	0	0	2	207	0;
	2	0	0	2	0	0;
	2	0	0	2	0	0;
	2	0	0	2	0	0;
	2	0	0	2	0	0;
	2	0	0	2	0	0;
	2	0	0	2	0	0;
	2	600	0	2	23.34	900;
	2	2000	0	2	200.1	3220;
	2	500	0	2	207	0;
	2	910	0	2	23.34	900;
	2	8883	0	2	24.0953207	3740.6238;
	2	50000	20000	2	2.5	250;
	2	500	0	2	207	0;
	2	500	0	2	207	0;
	2	163	0	2	23.34	900;
	2	202	0	2	23.34	900;
	2	0	0	2	0	0;
	2	972	0	2	18.7105809	104.059611;
	2	2762	0	2	15.7222338	1162.41448;
	2	0	0	2	0	0;
	2	2500	0	2	234.6	4876;
	2	2500	0	2	234.6	4876;
	2	0	0	2	22.5	0;
	2	0	0	2	0	0;
	2	0	0	2	207	0;
	2	0	0	2	207	0;
	2	0	0	2	0	0;
	2	0	0	2	0	0;
	2	0	0	2	0	0;
	2	0	0	2	0	0;
	2	0	0	2	0	0;
	2	0	0	2	0	0;
	2	0	0	2	0	0;
	2	500	0	2	207	0;
	2	591	0	2	22.8760046	301.03938;
	2	0	0	2	0	0;
	2	5000	1000	2	40	2400;
	2	5000	1000	2	40	2400;
	2	0	0	2	0	0;
	2	0	0	2	0	0;
	2	5000	1000	2	40	2400;
	2	0	0	2	0	0;
	2	5000	1000	2	40	2400;
	2	5000	1000	2	40	2400;
	2	5000	1000	2	40	2400;
	2	5000	1000	2	40	2400;
	2	0	0	2	2.5	250;
	2	0	0	2	0	0;
	2	578	0	2	31.5687017	329.53791;
	2	0	0	2	2.5	250;
	2	50000	20000	2	0	0;
	2	5655	0	2	14.1254701	1735.55672;
	2	5655	0	2	15.6715141	1114.53108;
	2	0	0	2	0	0;
	2	0	0	2	0	0;
	2	0	0	2	0	0;
	2	0	0	2	0	0;
	2	500	0	2	207	0;
	2	641	0	2	22.0011456	261.542266;
	2	0	0	2	0	0;
	2	0	0	2	0	0;
	2	0	0	2	0	0;
	2	0	0	2	0	0;
	2	0	0	2	0	0;
	2	0	0	2	0	0;
	2	0	0	2	0	0;
	2	0	0	2	0	0;
	2	0	0	2	0	0;
	2	0	0	2	0	0;
	2	0	0	2	0	0;
	2	0	0	2	0	0;
	2	0	0	2	0	0;
	2	0	0	2	0	0;
	2	0	0	2	0	0;
	2	0	0	2	0	0;
	2	0	0	2	0	0;
	2	0	0	2	0	0;
	2	0	0	2	0	0;
	2	2500	0	2	234.6	4876;
	2	1055	0	2	22.4163919	189.407138;
	2	3331	0	2	26.7419651	-287.138198;
	2	0	0	2	0	0;
	2	2000	0	2	200.1	3220;
	2	7554	0	2	23.34	900;
	2	2000	0	2	200.1	3220;
	2	500	0	2	207	0;
	2	500	0	2	207	0;
	2	500	0	2	207	0;
	2	500	0	2	207	0;
	2	500	0	2	207	0;
	2	500	0	2	207	0;
	2	500	0	2	207	0;
	2	500	0	2	207	0;
	2	500	0	2	207	0;
	2	500	0	2	207	0;
	2	500	0	2	207	0;
	2	500	0	2	207	0;
	2	500	0	2	200.1	3220;
	2	2000	0	2	31.5	120;
	2	2000	0	2	31.5	120;
	2	2500	0	2	30.4168259	264.489799;
	2	2500	0	2	28.5469115	418.821638;
	2	3859	0	2	21.9085306	-366.819829;
	2	5810	0	2	18.7216649	1340.37944;
	2	2000	0	2	31.5	120;
	2	2000	0	2	31.5	120;
	2	2000	0	2	31.5	120;
	2	2000	0	2	31.5	120;
	2	2000	0	2	31.5	120;
	2	2000	0	2	29.4	112;
...
];

...